Version 4
SHEET 1 1480 680
WIRE 800 -224 656 -224
WIRE 656 -160 656 -224
WIRE 800 -160 800 -224
WIRE 656 16 656 -80
WIRE 736 16 656 16
WIRE 864 16 800 16
WIRE 1040 16 944 16
WIRE 1360 16 1040 16
WIRE 1040 96 1040 16
WIRE 1456 96 1040 96
WIRE -48 128 -112 128
WIRE 128 128 32 128
WIRE 656 128 656 16
WIRE 656 128 320 128
WIRE 1040 144 1040 96
WIRE -112 160 -112 128
WIRE 1456 160 1456 96
WIRE 128 224 16 224
WIRE 384 224 320 224
WIRE 512 224 464 224
WIRE 656 224 512 224
WIRE 800 224 656 224
WIRE 992 224 800 224
WIRE 1040 240 1040 208
WIRE 800 272 800 224
WIRE 16 288 16 224
WIRE 656 288 656 224
WIRE 512 304 512 224
WIRE 1040 304 1040 240
WIRE 1456 304 1456 224
WIRE 1456 304 1040 304
WIRE 512 384 512 368
WIRE 656 384 656 368
WIRE 656 384 512 384
WIRE 800 384 800 336
WIRE 800 384 656 384
WIRE 1040 384 1040 304
WIRE 1040 384 800 384
WIRE 16 416 16 368
WIRE 512 416 512 384
FLAG -112 160 0
FLAG 16 416 0
FLAG 512 416 0
FLAG 800 -160 0
SYMBOL Optos\\PC817A 224 176 R0
SYMATTR InstName U1
SYMBOL voltage 48 128 R90
WINDOW 0 -32 56 VBottom 2
WINDOW 3 -111 59 VTop 2
WINDOW 123 0 0 Left 0
WINDOW 39 0 0 Left 0
SYMATTR InstName V1
SYMATTR Value PULSE(0 5 0 0 0 0.5m 1m)
SYMBOL voltage 656 -64 R180
WINDOW 0 24 96 Left 2
WINDOW 3 24 16 Left 2
WINDOW 123 0 0 Left 0
WINDOW 39 0 0 Left 0
SYMATTR InstName V2
SYMATTR Value 12
SYMBOL res 0 272 R0
SYMATTR InstName R1
SYMATTR Value 220R
SYMBOL res 640 272 R0
SYMATTR InstName R2
SYMATTR Value 1k
SYMBOL cap 496 304 R0
SYMATTR InstName C1
SYMATTR Value 10p
SYMBOL LED 736 32 R270
WINDOW 0 72 32 VTop 2
WINDOW 3 0 32 VBottom 2
SYMATTR InstName D1
SYMBOL res 960 0 R90
WINDOW 0 0 56 VBottom 2
WINDOW 3 39 62 VTop 2
SYMATTR InstName R3
SYMATTR Value 1k
SYMBOL nmos 992 144 R0
SYMATTR InstName M1
SYMATTR Value FDMS3622SQ2
SYMBOL TVSdiode 784 272 R0
SYMATTR InstName D2
SYMATTR Value SMBJ24CA
SYMBOL res 480 208 R90
WINDOW 0 0 56 VBottom 2
WINDOW 3 32 56 VTop 2
SYMATTR InstName R4
SYMATTR Value 320R
SYMBOL zener 1472 224 R180
WINDOW 0 24 64 Left 2
WINDOW 3 24 0 Left 2
SYMATTR InstName D3
SYMATTR Value TFZV12B
TEXT -176 440 Left 2 !.tran 5m
